518558
  -OEChem-07052412202D

 12 12  0     0  0  0  0  0  0999 V2000
    3.8660   -0.7500    0.0000 W   0  0  0  0  0  0  0  0  0  0  0  0
    3.0000    0.7500    0.0000 W   0  0  0  0  0  0  0  0  0  0  0  0
    4.7320    0.7500    0.0000 W   0  0  0  0  0  0  0  0  0  0  0  0
    3.0000   -0.2500    0.0000 O   0  0  0  0  0  0  0  0  0  0  0  0
    4.7320   -0.2500    0.0000 O   0  0  0  0  0  0  0  0  0  0  0  0
    3.8660    1.2500    0.0000 O   0  0  0  0  0  0  0  0  0  0  0  0
    3.3660   -1.6160    0.0000 O   0  0  0  0  0  0  0  0  0  0  0  0
    4.3660   -1.6160    0.0000 O   0  0  0  0  0  0  0  0  0  0  0  0
    2.5000    1.6160    0.0000 O   0  0  0  0  0  0  0  0  0  0  0  0
    2.0000    0.7500    0.0000 O   0  0  0  0  0  0  0  0  0  0  0  0
    5.7320    0.7500    0.0000 O   0  0  0  0  0  0  0  0  0  0  0  0
    5.2320    1.6160    0.0000 O   0  0  0  0  0  0  0  0  0  0  0  0
  1  4  1  0  0  0  0
  1  5  1  0  0  0  0
  1  7  2  0  0  0  0
  1  8  2  0  0  0  0
  2  4  1  0  0  0  0
  2  6  1  0  0  0  0
  2  9  2  0  0  0  0
  2 10  2  0  0  0  0
  3  5  1  0  0  0  0
  3  6  1  0  0  0  0
  3 11  2  0  0  0  0
  3 12  2  0  0  0  0
M  END
> <PUBCHEM_COMPOUND_CID>
518558

> <PUBCHEM_COMPOUND_CANONICALIZED>
1

> <PUBCHEM_CACTVS_COMPLEXITY>
345

> <PUBCHEM_CACTVS_HBOND_ACCEPTOR>
9

> <PUBCHEM_CACTVS_HBOND_DONOR>
0

> <PUBCHEM_CACTVS_ROTATABLE_BOND>
0

> <PUBCHEM_CACTVS_SUBSKEYS>
AAADcQAAPAAAAAAAAAAAQAAAAAAAAAAAAAAkAAAAAAAAAAAAAAAAAAAAAAAAAAAAAAAAAAAAAAAAAAAAAAAAAAAAAAAAAAAAAAAAAAAAAAAAAAAAAAAAAAAAAAAAAAAAAAAAAAAAAAAAAAAAAAAAAAAAAA==

> <PUBCHEM_IUPAC_OPENEYE_NAME>
1,3,5-trioxa-2lambda6,4lambda6,6lambda6-tritungstacyclohexane 2,2,4,4,6,6-hexaoxide

> <PUBCHEM_IUPAC_CAS_NAME>
1,3,5-trioxa-2lambda6,4lambda6,6lambda6-tritungstacyclohexane 2,2,4,4,6,6-hexaoxide

> <PUBCHEM_IUPAC_NAME_MARKUP>
1,3,5-trioxa-2&lambda;<SUP>6</SUP>,4&lambda;<SUP>6</SUP>,6&lambda;<SUP>6</SUP>-tritungstacyclohexane 2,2,4,4,6,6-hexaoxide

> <PUBCHEM_IUPAC_NAME>
1,3,5-trioxa-2lambda6,4lambda6,6lambda6-tritungstacyclohexane 2,2,4,4,6,6-hexaoxide

> <PUBCHEM_IUPAC_SYSTEMATIC_NAME>
1,3,5-trioxa-2lambda6,4lambda6,6lambda6-tritungstacyclohexane 2,2,4,4,6,6-hexaoxide

> <PUBCHEM_IUPAC_TRADITIONAL_NAME>
1,3,5-trioxa-2lambda6,4lambda6,6lambda6-tritungstacyclohexane 2,2,4,4,6,6-hexaoxide

> <PUBCHEM_IUPAC_INCHI>
InChI=1S/9O.3W

> <PUBCHEM_IUPAC_INCHIKEY>
QGLKJKCYBOYXKC-UHFFFAOYSA-N

> <PUBCHEM_EXACT_MASS>
695.80774

> <PUBCHEM_MOLECULAR_FORMULA>
O9W3

> <PUBCHEM_MOLECULAR_WEIGHT>
695.5

> <PUBCHEM_OPENEYE_CAN_SMILES>
O=[W]1(=O)O[W](=O)(=O)O[W](=O)(=O)O1

> <PUBCHEM_OPENEYE_ISO_SMILES>
O=[W]1(=O)O[W](=O)(=O)O[W](=O)(=O)O1

> <PUBCHEM_CACTVS_TPSA>
130

> <PUBCHEM_MONOISOTOPIC_WEIGHT>
695.80703

> <PUBCHEM_TOTAL_CHARGE>
0

> <PUBCHEM_HEAVY_ATOM_COUNT>
12

> <PUBCHEM_ATOM_DEF_STEREO_COUNT>
0

> <PUBCHEM_ATOM_UDEF_STEREO_COUNT>
0

> <PUBCHEM_BOND_DEF_STEREO_COUNT>
0

> <PUBCHEM_BOND_UDEF_STEREO_COUNT>
0

> <PUBCHEM_ISOTOPIC_ATOM_COUNT>
0

> <PUBCHEM_COMPONENT_COUNT>
1

> <PUBCHEM_CACTVS_TAUTO_COUNT>
-1

> <PUBCHEM_COORDINATE_TYPE>
1
5
255

$$$$
